/*--------------------------------*- C++ -*----------------------------------*\
  =========                 |
  \\      /  F ield         | OpenFOAM: The Open Source CFD Toolbox
   \\    /   O peration     | Website:  https://openfoam.org
    \\  /    A nd           | Version:  7
     \\/     M anipulation  |
\*---------------------------------------------------------------------------*/
FoamFile
{
    version     2.0;
    format      ascii;
    class       featureEdgeMesh;
    location    "constant/triSurface";
    object      LD4membrane.eMesh;
}
// * * * * * * * * * * * * * * * * * * * * * * * * * * * * * * * * * * * * * //


// points:

22528
(
(-0.0039466098 -0.0059528798 0.0014395399)
(-0.0039598001 -0.0059397002 0.00144)
(-0.00393346 -0.0059660301 0.00143817)
(-0.0039203698 -0.00597913 0.00143589)
(-0.0039073802 -0.0059921201 0.0014327)
(-0.00389451 -0.0060049901 0.0014286099)
(-0.0038818 -0.0060176998 0.0014236399)
(-0.00386927 -0.0060302201 0.00141779)
(-0.00385697 -0.0060425298 0.00141107)
(-0.0038449101 -0.0060545802 0.00140352)
(-0.00383313 -0.00606636 0.0013951299)
(-0.0038216601 -0.00607784 0.00138594)
(-0.00381051 -0.00608898 0.00137596)
(-0.00379973 -0.0060997601 0.0013652201)
(-0.0037893299 -0.0061101601 0.00135374)
(-0.0037793501 -0.00612015 0.00134156)
(-0.0037698001 -0.0061297002 0.0013287)
(-0.0037607001 -0.0061387899 0.00131519)
(-0.00375209 -0.0061474098 0.00130107)
(-0.0037439701 -0.0061555202 0.00128637)
(-0.00373638 -0.0061631198 0.00127112)
(-0.0037293199 -0.0061701699 0.00125536)
(-0.00372282 -0.0061766701 0.00123913)
(-0.00371689 -0.0061825998 0.00122247)
(-0.00371155 -0.00618794 0.00120542)
(-0.0037068001 -0.0061926902 0.00118802)
(-0.0037026701 -0.00619683 0.00117031)
(-0.0036991499 -0.0062003499 0.00115233)
(-0.00369626 -0.0062032398 0.00113414)
(-0.003694 -0.0062054899 0.00111576)
(-0.0036923899 -0.0062071099 0.00109725)
(-0.00369142 -0.0062080799 0.00107865)
(-0.0036911 -0.0062083998 0.00106)
(-0.00369142 -0.0062080799 0.00104136)
(-0.0036923899 -0.0062071099 0.00102275)
(-0.003694 -0.0062054899 0.00100424)
(-0.00369626 -0.0062032398 0.00098586595)
(-0.0036991499 -0.0062003499 0.00096766802)
(-0.0037026701 -0.00619683 0.00094969198)
(-0.0037068001 -0.0061926902 0.00093198201)
(-0.00371155 -0.00618794 0.000914581)
(-0.00371689 -0.0061825998 0.00089752901)
(-0.00372282 -0.0061766701 0.00088086998)
(-0.0037293199 -0.0061701699 0.00086464098)
(-0.00373638 -0.0061631198 0.000848884)
(-0.0037439701 -0.0061555202 0.00083363499)
(-0.00375209 -0.0061474098 0.00081893097)
(-0.0037607001 -0.0061387899 0.00080480799)
(-0.0037698001 -0.0061297002 0.00079129997)
(-0.0037793501 -0.00612015 0.00077843899)
(-0.0037893299 -0.0061101601 0.000766257)
(-0.00379973 -0.0060997601 0.000754782)
(-0.00381051 -0.00608898 0.00074404199)
(-0.0038216601 -0.00607784 0.00073406397)
(-0.00383313 -0.00606636 0.000724871)
(-0.0038449101 -0.0060545802 0.00071648502)
(-0.00385697 -0.0060425298 0.00070892699)
(-0.00386927 -0.0060302201 0.00070221402)
(-0.0038818 -0.0060176998 0.00069636299)
(-0.00389451 -0.0060049901 0.00069138902)
(-0.0039073802 -0.0059921201 0.00068730197)
(-0.0039203698 -0.00597913 0.000684114)
(-0.00393346 -0.0059660398 0.00068182999)
(-0.0039466098 -0.0059528798 0.00068045798)
(-0.0039597899 -0.0059397002 0.00068000099)
(-0.0039729802 -0.0059265099 0.00068045798)
(-0.00398613 -0.00591336 0.00068182999)
(-0.0039992202 -0.0059002698 0.00068411301)
(-0.0040122201 -0.0058872802 0.00068730197)
(-0.0040250798 -0.0058744098 0.00069138902)
(-0.0040377998 -0.0058617 0.00069636299)
(-0.00405032 -0.0058491798 0.00070221402)
(-0.00406262 -0.0058368701 0.000708926)
(-0.0040746802 -0.0058248099 0.00071648398)
(-0.00408646 -0.0058130398 0.00072487001)
(-0.0040979399 -0.0058015599 0.00073406298)
(-0.0041090799 -0.0057904199 0.00074404199)
(-0.00411986 -0.00577963 0.00075478101)
(-0.0041302601 -0.0057692402 0.00076625601)
(-0.0041402401 -0.0057592499 0.000778438)
(-0.0041498002 -0.0057497001 0.00079129898)
(-0.0041588899 -0.0057406002 0.000804807)
(-0.0041675 -0.0057319901 0.00081892998)
(-0.0041756202 -0.0057238801 0.000833634)
(-0.00418321 -0.0057162801 0.00084888301)
(-0.0041902699 -0.00570923 0.00086464098)
(-0.00419677 -0.0057027298 0.00088086899)
(-0.0042027002 -0.0056968001 0.00089752901)
(-0.00420804 -0.0056914501 0.00091458001)
(-0.0042127902 -0.0056867101 0.00093198201)
(-0.0042169299 -0.0056825699 0.00094969099)
(-0.0042204401 -0.00567905 0.00096766697)
(-0.0042233299 -0.0056761601 0.00098586502)
(-0.0042255898 -0.00567391 0.00100424)
(-0.0042272001 -0.00567229 0.00102275)
(-0.00422817 -0.00567132 0.00104135)
(-0.0042285002 -0.0056710001 0.00106)
(-0.00422817 -0.00567132 0.00107865)
(-0.0042272001 -0.00567229 0.00109725)
(-0.0042255898 -0.00567391 0.00111576)
(-0.0042233299 -0.0056761601 0.0011341301)
(-0.0042204401 -0.00567905 0.00115233)
(-0.0042169299 -0.0056825699 0.00117031)
(-0.0042127902 -0.0056867101 0.00118802)
(-0.00420804 -0.0056914501 0.00120542)
(-0.0042027002 -0.0056968001 0.00122247)
(-0.00419677 -0.0057027298 0.00123913)
(-0.0041902699 -0.00570923 0.00125536)
(-0.00418321 -0.0057162801 0.00127112)
(-0.0041756202 -0.0057238801 0.00128637)
(-0.0041675 -0.0057319901 0.00130107)
(-0.0041588899 -0.0057406002 0.00131519)
(-0.0041498002 -0.0057497001 0.0013287)
(-0.0041402401 -0.0057592499 0.00134156)
(-0.0041302601 -0.0057692402 0.00135374)
(-0.00411986 -0.00577963 0.0013652201)
(-0.0041090799 -0.0057904199 0.00137596)
(-0.0040979399 -0.0058015599 0.00138594)
(-0.00408646 -0.0058130398 0.0013951299)
(-0.0040746802 -0.0058248099 0.00140352)
(-0.00406262 -0.0058368701 0.00141107)
(-0.00405032 -0.0058491798 0.00141779)
(-0.0040377998 -0.0058617 0.0014236399)
(-0.0040250798 -0.0058744098 0.0014286099)
(-0.0040122201 -0.0058872802 0.0014327)
(-0.0039992202 -0.0059002698 0.00143589)
(-0.00398613 -0.00591336 0.00143817)
(-0.0039729802 -0.0059265201 0.0014395399)
(-0.0039729802 -0.0059528798 0.00071954302)
(-0.0039598001 -0.0059397002 0.000720001)
(-0.00398613 -0.0059660398 0.00071817101)
(-0.0039992202 -0.00597913 0.00071588799)
(-0.0040122201 -0.0059921201 0.00071269902)
(-0.0040250798 -0.0060049901 0.00070861197)
(-0.0040377998 -0.0060176998 0.00070363801)
(-0.00405032 -0.0060302201 0.00069778698)
(-0.00406262 -0.0060425298 0.00069107499)
(-0.0040746802 -0.0060545802 0.00068351597)
(-0.00408646 -0.00606636 0.00067513098)
(-0.0040979399 -0.00607784 0.00066593703)
(-0.0041090799 -0.00608898 0.00065595901)
(-0.00411986 -0.0060997601 0.000645219)
(-0.0041302601 -0.0061101601 0.000633744)
(-0.0041402401 -0.00612015 0.00062156201)
(-0.0041498002 -0.0061297002 0.00060870103)
(-0.0041588899 -0.0061387899 0.00059519301)
(-0.0041675 -0.0061474098 0.00058107002)
(-0.0041756202 -0.0061555202 0.00056636601)
(-0.00418321 -0.0061631198 0.000551117)
(-0.0041902699 -0.0061701699 0.00053535902)
(-0.00419677 -0.0061766701 0.00051913102)
(-0.0042027002 -0.0061825998 0.000502471)
(-0.00420804 -0.00618794 0.00048541999)
(-0.0042127902 -0.0061926902 0.00046801899)
(-0.0042169299 -0.00619683 0.00045030899)
(-0.0042204401 -0.0062003499 0.00043233301)
(-0.0042233299 -0.0062032398 0.00041413499)
(-0.0042255898 -0.0062054899 0.00039575799)
(-0.0042272001 -0.0062071099 0.00037724699)
(-0.00422817 -0.0062080799 0.00035864601)
(-0.0042285002 -0.0062083998 0.00034)
(-0.00422817 -0.0062080799 0.00032135501)
(-0.0042272001 -0.0062071099 0.00030275399)
(-0.0042255898 -0.0062054899 0.000284243)
(-0.0042233299 -0.0062032398 0.00026586599)
(-0.0042204401 -0.0062003499 0.00024766801)
(-0.0042169299 -0.00619683 0.000229692)
(-0.0042127902 -0.0061926902 0.000211982)
(-0.00420804 -0.00618794 0.00019458101)
(-0.0042027002 -0.0061825998 0.000177529)
(-0.00419677 -0.0061766701 0.00016087)
(-0.0041902699 -0.0061701699 0.000144641)
(-0.00418321 -0.0061631198 0.000128884)
(-0.0041756202 -0.0061555202 0.000113635)
(-0.0041675 -0.0061474098 9.8930999e-05)
(-0.0041588899 -0.0061387899 8.4808002e-05)
(-0.0041498002 -0.0061297002 7.1299997e-05)
(-0.0041402401 -0.00612015 5.8439e-05)
(-0.0041302601 -0.0061101601 4.6256999e-05)
(-0.00411986 -0.0060997601 3.4781999e-05)
(-0.0041090799 -0.00608898 2.4041999e-05)
(-0.0040979399 -0.00607784 1.4064e-05)
(-0.00408646 -0.00606636 4.8709999e-06)
(-0.0040746802 -0.0060545802 -3.5149999e-06)
(-0.00406262 -0.0060425298 -1.1074e-05)
(-0.00405032 -0.0060302201 -1.7786e-05)
(-0.0040377998 -0.0060176998 -2.3637e-05)
(-0.0040250798 -0.0060049901 -2.8611001e-05)
(-0.0040122201 -0.0059921201 -3.2698001e-05)
(-0.0039992202 -0.00597913 -3.5886002e-05)
(-0.00398613 -0.0059660398 -3.8170001e-05)
(-0.0039729802 -0.0059528798 -3.9541999e-05)
(-0.0039598001 -0.0059397002 -3.9999999e-05)
(-0.0039466098 -0.0059265099 -3.9541999e-05)
(-0.00393346 -0.00591336 -3.8170001e-05)
(-0.0039203698 -0.0059002698 -3.5886998e-05)
(-0.0039073802 -0.0058872802 -3.2698001e-05)
(-0.00389451 -0.0058744098 -2.8611999e-05)
(-0.0038818 -0.0058617 -2.3637e-05)
(-0.00386927 -0.0058491798 -1.7787001e-05)
(-0.00385697 -0.0058368701 -1.1074e-05)
(-0.0038449101 -0.0058248099 -3.5160001e-06)
(-0.00383313 -0.0058130398 4.8699999e-06)
(-0.0038216601 -0.0058015599 1.4063e-05)
(-0.00381051 -0.0057904199 2.4041001e-05)
(-0.00379973 -0.00577963 3.4780998e-05)
(-0.0037893399 -0.0057692402 4.6255998e-05)
(-0.0037793501 -0.0057592499 5.8438e-05)
(-0.0037698001 -0.0057497001 7.1299e-05)
(-0.0037607001 -0.0057406002 8.4806998e-05)
(-0.00375209 -0.0057319901 9.8930002e-05)
(-0.0037439701 -0.0057238801 0.000113634)
(-0.00373638 -0.0057162801 0.000128883)
(-0.0037293199 -0.00570923 0.000144641)
(-0.00372282 -0.0057027298 0.00016086901)
(-0.00371689 -0.0056968001 0.000177529)
(-0.00371155 -0.0056914501 0.00019458)
(-0.0037068001 -0.0056867101 0.00021198099)
(-0.0037026701 -0.0056825699 0.000229691)
(-0.0036991499 -0.00567905 0.00024766699)
(-0.00369626 -0.0056761601 0.000265865)
(-0.003694 -0.00567391 0.00028424201)
(-0.0036923899 -0.00567229 0.000302753)
(-0.00369142 -0.00567132 0.00032135399)
(-0.0036911 -0.0056710001 0.00034)
(-0.00369142 -0.00567132 0.00035864601)
(-0.0036923899 -0.00567229 0.00037724699)
(-0.003694 -0.00567391 0.00039575799)
(-0.00369626 -0.0056761601 0.000414134)
(-0.0036991499 -0.00567905 0.00043233301)
(-0.0037026701 -0.0056825699 0.000450308)
(-0.0037068001 -0.0056867101 0.000468018)
(-0.00371155 -0.0056914501 0.00048541999)
(-0.00371689 -0.0056967898 0.000502471)
(-0.00372282 -0.0057027298 0.00051913102)
(-0.0037293199 -0.00570923 0.00053536001)
(-0.00373638 -0.0057162801 0.000551117)
(-0.0037439701 -0.0057238801 0.00056636601)
(-0.00375209 -0.0057319901 0.00058107002)
(-0.0037607001 -0.0057406002 0.00059519301)
(-0.0037698001 -0.0057497001 0.00060870103)
(-0.0037793501 -0.0057592499 0.00062156201)
(-0.0037893399 -0.0057692402 0.00063374499)
(-0.00379973 -0.00577963 0.00064521999)
(-0.00381051 -0.0057904199 0.00065595901)
(-0.0038216601 -0.0058015599 0.00066593802)
(-0.00383313 -0.0058130301 0.00067513098)
(-0.0038449101 -0.0058248099 0.00068351702)
(-0.00385697 -0.0058368701 0.00069107499)
(-0.00386927 -0.0058491798 0.00069778803)
(-0.0038818 -0.0058617 0.00070363801)
(-0.00389451 -0.0058744098 0.00070861302)
(-0.0039073802 -0.0058872802 0.00071269902)
(-0.0039203698 -0.0059002698 0.00071588799)
(-0.00393346 -0.00591336 0.00071817101)
(-0.0039466098 -0.0059265201 0.00071954302)
(-0.0039466098 -0.0019930899 0.0014395399)
(-0.0039598001 -0.0019799001 0.00144)
(-0.00393346 -0.00200624 0.00143817)
(-0.0039203698 -0.0020193299 0.00143589)
(-0.0039073802 -0.00203232 0.0014327)
(-0.00389451 -0.00204519 0.0014286099)
(-0.0038818 -0.0020579 0.0014236399)
(-0.00386927 -0.00207042 0.00141779)
(-0.00385697 -0.0020827299 0.00141107)
(-0.0038449101 -0.0020947801 0.00140352)
(-0.00383313 -0.0021065599 0.0013951299)
(-0.0038216601 -0.0021180401 0.00138594)
(-0.00381051 -0.0021291799 0.00137596)
(-0.00379973 -0.00213997 0.0013652201)
(-0.0037893299 -0.00215036 0.00135374)
(-0.0037793501 -0.0021603501 0.00134156)
(-0.0037698001 -0.0021699001 0.0013287)
(-0.0037607001 -0.00217899 0.00131519)
(-0.00375209 -0.0021876099 0.00130107)
(-0.0037439701 -0.0021957201 0.00128637)
(-0.00373638 -0.0022033199 0.00127112)
(-0.0037293199 -0.00221037 0.00125536)
(-0.00372282 -0.00221687 0.00123913)
(-0.00371689 -0.0022227999 0.00122247)
(-0.00371155 -0.0022281499 0.00120542)
(-0.0037068001 -0.0022328901 0.00118802)
(-0.0037026701 -0.0022370301 0.00117031)
(-0.0036991499 -0.00224055 0.00115233)
(-0.00369626 -0.0022434399 0.00113414)
(-0.003694 -0.00224569 0.00111576)
(-0.0036923899 -0.00224731 0.00109725)
(-0.00369142 -0.00224828 0.00107865)
(-0.0036911 -0.0022485999 0.00106)
(-0.00369142 -0.00224828 0.00104136)
(-0.0036923899 -0.00224731 0.00102275)
(-0.003694 -0.00224569 0.00100424)
(-0.00369626 -0.0022434399 0.00098586595)
(-0.0036991499 -0.00224055 0.00096766802)
(-0.0037026701 -0.0022370301 0.00094969198)
(-0.0037068001 -0.0022328901 0.00093198201)
(-0.00371155 -0.0022281499 0.000914581)
(-0.00371689 -0.0022227999 0.00089752901)
(-0.00372282 -0.00221687 0.00088086899)
(-0.0037293199 -0.00221037 0.00086464098)
(-0.00373638 -0.0022033199 0.000848884)
(-0.0037439701 -0.0021957201 0.000833634)
(-0.00375209 -0.0021876099 0.00081893097)
(-0.0037607001 -0.00217899 0.00080480799)
(-0.0037698001 -0.0021699001 0.00079129997)
(-0.0037793501 -0.0021603501 0.00077843899)
(-0.0037893299 -0.00215036 0.000766257)
(-0.00379973 -0.00213997 0.000754782)
(-0.00381051 -0.0021291799 0.00074404199)
(-0.0038216601 -0.0021180401 0.00073406397)
(-0.00383313 -0.0021065599 0.00072487001)
(-0.0038449101 -0.0020947801 0.00071648398)
(-0.00385697 -0.0020827299 0.000708926)
(-0.00386927 -0.00207042 0.00070221402)
(-0.0038818 -0.0020579 0.00069636299)
(-0.00389451 -0.00204519 0.00069138902)
(-0.0039073802 -0.00203232 0.00068730197)
(-0.0039203698 -0.0020193299 0.00068411301)
(-0.00393346 -0.00200624 0.00068182999)
(-0.0039466098 -0.0019930899 0.00068045798)
(-0.0039597899 -0.0019799001 0.00068)
(-0.0039729802 -0.00196672 0.00068045798)
(-0.00398613 -0.0019535599 0.00068182999)
(-0.0039992202 -0.00194047 0.00068411301)
(-0.0040122201 -0.00192748 0.00068730197)
(-0.0040250798 -0.00191461 0.00069138798)
(-0.0040377998 -0.0019019 0.00069636299)
(-0.00405032 -0.00188938 0.00070221297)
(-0.00406262 -0.0018770701 0.000708926)
(-0.0040746802 -0.00186502 0.00071648398)
(-0.00408646 -0.00185324 0.00072487001)
(-0.0040979399 -0.00184176 0.00073406298)
(-0.0041090799 -0.00183062 0.000744041)
(-0.00411986 -0.0018198401 0.00075478101)
(-0.0041302601 -0.00180944 0.00076625502)
(-0.0041402401 -0.00179945 0.000778438)
(-0.0041498002 -0.0017899 0.00079129898)
(-0.0041588899 -0.00178081 0.000804807)
(-0.0041675 -0.00177219 0.00081892998)
(-0.0041756202 -0.00176408 0.000833634)
(-0.00418321 -0.00175648 0.00084888301)
(-0.0041902699 -0.00174943 0.00086464098)
(-0.00419677 -0.00174293 0.00088086899)
(-0.0042027002 -0.001737 0.00089752802)
(-0.00420804 -0.00173165 0.00091458001)
(-0.0042127902 -0.00172691 0.00093198201)
(-0.0042169299 -0.00172277 0.00094969099)
(-0.0042204401 -0.00171925 0.00096766697)
(-0.0042233299 -0.00171636 0.00098586502)
(-0.0042255898 -0.00171411 0.00100424)
(-0.0042272001 -0.00171249 0.00102275)
(-0.00422817 -0.00171152 0.00104135)
(-0.0042285002 -0.0017112 0.00106)
(-0.00422817 -0.00171152 0.00107864)
(-0.0042272001 -0.00171249 0.00109725)
(-0.0042255898 -0.00171411 0.00111576)
(-0.0042233299 -0.00171636 0.0011341301)
(-0.0042204401 -0.00171925 0.00115233)
(-0.0042169299 -0.00172277 0.00117031)
(-0.0042127902 -0.00172691 0.00118802)
(-0.00420804 -0.00173165 0.00120542)
(-0.0042027002 -0.001737 0.00122247)
(-0.00419677 -0.00174293 0.00123913)
(-0.0041902699 -0.00174943 0.00125536)
(-0.00418321 -0.00175648 0.00127112)
(-0.0041756202 -0.00176408 0.00128637)
(-0.0041675 -0.00177219 0.00130107)
(-0.0041588899 -0.00178081 0.00131519)
(-0.0041498002 -0.0017899 0.0013287)
(-0.0041402401 -0.00179945 0.00134156)
(-0.0041302601 -0.00180944 0.00135374)
(-0.00411986 -0.0018198401 0.0013652201)
(-0.0041090799 -0.00183062 0.00137596)
(-0.0040979399 -0.00184176 0.00138594)
(-0.00408646 -0.00185324 0.0013951299)
(-0.0040746802 -0.00186502 0.00140352)
(-0.00406262 -0.0018770701 0.00141107)
(-0.00405032 -0.00188938 0.00141779)
(-0.0040377998 -0.0019019 0.0014236399)
(-0.0040250798 -0.00191461 0.0014286099)
(-0.0040122201 -0.00192748 0.0014327)
(-0.0039992202 -0.00194047 0.00143589)
(-0.00398613 -0.0019535599 0.00143817)
(-0.0039729802 -0.00196672 0.0014395399)
(-0.0039729802 -0.0019930799 0.00071954302)
(-0.0039598001 -0.0019799001 0.00072000001)
(-0.00398613 -0.00200624 0.00071817101)
(-0.0039992202 -0.0020193299 0.000715887)
(-0.0040122201 -0.00203232 0.00071269902)
(-0.0040250798 -0.00204519 0.00070861197)
(-0.0040377998 -0.0020579 0.00070363801)
(-0.00405032 -0.00207042 0.00069778698)
(-0.00406262 -0.0020827299 0.00069107499)
(-0.0040746802 -0.0020947801 0.00068351597)
(-0.00408646 -0.0021065599 0.00067513)
(-0.0040979399 -0.0021180401 0.00066593703)
(-0.0041090799 -0.0021291799 0.00065595901)
(-0.00411986 -0.00213997 0.000645219)
(-0.0041302601 -0.00215036 0.000633744)
(-0.0041402401 -0.0021603501 0.00062156201)
(-0.0041498002 -0.0021699001 0.00060870103)
(-0.0041588899 -0.00217899 0.00059519301)
(-0.0041675 -0.0021876099 0.00058107002)
(-0.0041756202 -0.0021957201 0.00056636601)
(-0.00418321 -0.0022033199 0.000551117)
(-0.0041902699 -0.00221037 0.00053535902)
(-0.00419677 -0.00221687 0.00051913102)
(-0.0042027002 -0.0022227999 0.000502471)
(-0.00420804 -0.0022281499 0.00048541999)
(-0.0042127902 -0.0022328901 0.000468018)
(-0.0042169299 -0.0022370301 0.000450308)
(-0.0042204401 -0.00224055 0.00043233301)
(-0.0042233299 -0.0022434399 0.00041413499)
(-0.0042255898 -0.00224569 0.00039575799)
(-0.0042272001 -0.00224731 0.00037724699)
(-0.00422817 -0.00224828 0.00035864601)
(-0.0042285002 -0.0022485999 0.00034)
(-0.00422817 -0.00224828 0.00032135399)
(-0.0042272001 -0.00224731 0.00030275399)
(-0.0042255898 -0.00224569 0.000284243)
(-0.0042233299 -0.0022434399 0.00026586599)
(-0.0042204401 -0.00224055 0.00024766801)
(-0.0042169299 -0.0022370301 0.000229692)
(-0.0042127902 -0.0022328901 0.000211982)
(-0.00420804 -0.0022281499 0.00019458)
(-0.0042027002 -0.0022227999 0.000177529)
(-0.00419677 -0.00221687 0.00016086901)
(-0.0041902699 -0.00221037 0.000144641)
(-0.00418321 -0.0022033199 0.000128884)
(-0.0041756202 -0.0021957201 0.000113635)
(-0.0041675 -0.0021876099 9.8930999e-05)
(-0.0041588899 -0.00217899 8.4808002e-05)
(-0.0041498002 -0.0021699001 7.1299997e-05)
(-0.0041402401 -0.0021603501 5.8439e-05)
(-0.0041302601 -0.00215036 4.6255998e-05)
(-0.00411986 -0.00213997 3.4781999e-05)
(-0.0041090799 -0.0021291799 2.4041999e-05)
(-0.0040979399 -0.0021180401 1.4064e-05)
(-0.00408646 -0.0021065599 4.8699999e-06)
(-0.0040746802 -0.0020947801 -3.5149999e-06)
(-0.00406262 -0.0020827299 -1.1074e-05)
(-0.00405032 -0.00207042 -1.7786e-05)
(-0.0040377998 -0.0020579 -2.3637e-05)
(-0.0040250798 -0.00204519 -2.8611001e-05)
(-0.0040122201 -0.00203232 -3.2698001e-05)
(-0.0039992202 -0.0020193299 -3.5886998e-05)
(-0.00398613 -0.00200624 -3.8170001e-05)
(-0.0039729802 -0.0019930899 -3.9541999e-05)
(-0.0039598001 -0.0019799001 -3.9999999e-05)
(-0.0039466098 -0.00196672 -3.9541999e-05)
(-0.00393346 -0.0019535599 -3.8170001e-05)
(-0.0039203698 -0.00194047 -3.5886998e-05)
(-0.0039073802 -0.00192748 -3.2698001e-05)
(-0.00389451 -0.00191461 -2.8611999e-05)
(-0.0038818 -0.0019019 -2.3637e-05)
(-0.00386927 -0.00188938 -1.7787001e-05)
(-0.00385697 -0.0018770701 -1.1074e-05)
(-0.0038449101 -0.00186502 -3.5160001e-06)
(-0.00383313 -0.00185324 4.8699999e-06)
(-0.0038216601 -0.00184176 1.4063e-05)
(-0.00381051 -0.00183062 2.4041001e-05)
(-0.00379973 -0.0018198401 3.4780998e-05)
(-0.0037893399 -0.00180944 4.6255998e-05)
(-0.0037793501 -0.00179945 5.8438e-05)
(-0.0037698001 -0.0017899 7.1299e-05)
(-0.0037607001 -0.00178081 8.4806998e-05)
(-0.00375209 -0.00177219 9.8930002e-05)
(-0.0037439701 -0.00176408 0.000113634)
(-0.00373638 -0.00175648 0.000128883)
(-0.0037293199 -0.00174943 0.00014464)
(-0.00372282 -0.00174293 0.00016086901)
(-0.00371689 -0.001737 0.000177529)
(-0.00371155 -0.00173165 0.00019458)
(-0.0037068001 -0.00172691 0.00021198099)
(-0.0037026701 -0.00172277 0.000229691)
(-0.0036991499 -0.00171925 0.00024766699)
(-0.00369626 -0.00171636 0.000265865)
(-0.003694 -0.00171411 0.00028424201)
(-0.0036923899 -0.00171249 0.000302753)
(-0.00369142 -0.00171152 0.00032135399)
(-0.0036911 -0.0017112 0.00034)
(-0.00369142 -0.00171152 0.00035864601)
(-0.0036923899 -0.00171249 0.000377246)
(-0.003694 -0.00171411 0.00039575799)
(-0.00369626 -0.00171636 0.000414134)
(-0.0036991499 -0.00171925 0.00043233301)
(-0.0037026701 -0.00172277 0.000450308)
(-0.0037068001 -0.00172691 0.000468018)
(-0.00371155 -0.00173165 0.00048541999)
(-0.00371689 -0.001737 0.000502471)
(-0.00372282 -0.00174293 0.00051913102)
(-0.0037293199 -0.00174943 0.00053535902)
(-0.00373638 -0.00175648 0.000551117)
(-0.0037439701 -0.00176408 0.00056636601)
(-0.00375209 -0.00177219 0.00058107002)
(-0.0037607001 -0.00178081 0.00059519301)
(-0.0037698001 -0.0017899 0.00060870103)
(-0.0037793501 -0.00179945 0.00062156201)
(-0.0037893399 -0.00180944 0.00063374499)
(-0.00379973 -0.0018198401 0.00064521999)
(-0.00381051 -0.00183062 0.00065595901)
(-0.0038216601 -0.00184176 0.00066593802)
(-0.00383313 -0.00185324 0.00067513098)
(-0.0038449101 -0.00186502 0.00068351702)
(-0.00385697 -0.0018770701 0.00069107499)
(-0.00386927 -0.00188938 0.00069778698)
(-0.0038818 -0.0019019 0.00070363801)
(-0.00389451 -0.00191461 0.00070861197)
(-0.0039073802 -0.00192748 0.00071269902)
(-0.0039203698 -0.00194047 0.00071588799)
(-0.00393346 -0.0019535599 0.00071817101)
(-0.0039466098 -0.00196672 0.00071954302)
(-0.0039466098 0.00196671 0.0014395399)
(-0.0039598001 0.0019799001 0.00144)
(-0.00393346 0.0019535599 0.00143817)
(-0.0039203698 0.00194047 0.00143589)
(-0.0039073802 0.00192748 0.0014327)
(-0.00389451 0.00191461 0.0014286099)
(-0.0038818 0.0019019 0.0014236399)
(-0.00386927 0.00188937 0.00141779)
(-0.00385697 0.0018770701 0.00141107)
(-0.0038449101 0.00186501 0.00140352)
(-0.00383313 0.0018532299 0.0013951299)
(-0.0038216601 0.00184176 0.00138594)
(-0.00381051 0.00183062 0.00137596)
(-0.00379973 0.00181983 0.0013652201)
(-0.0037893299 0.00180944 0.00135374)
(-0.0037793501 0.00179945 0.00134156)
(-0.0037698001 0.0017899 0.0013287)
(-0.0037607001 0.0017808001 0.00131519)
(-0.00375209 0.00177219 0.00130107)
(-0.0037439701 0.00176408 0.00128637)
(-0.00373638 0.00175648 0.00127112)
(-0.0037293199 0.00174943 0.00125536)
(-0.00372282 0.00174292 0.00123913)
(-0.00371689 0.0017369899 0.00122247)
(-0.00371155 0.00173165 0.00120542)
(-0.0037068001 0.0017269 0.00118802)
(-0.0037026701 0.00172277 0.00117031)
(-0.0036991499 0.00171925 0.00115233)
(-0.00369626 0.00171636 0.0011341301)
(-0.003694 0.00171411 0.00111576)
(-0.0036923899 0.00171249 0.00109725)
(-0.00369142 0.00171152 0.00107865)
(-0.0036911 0.0017112 0.00106)
(-0.00369142 0.00171152 0.00104135)
(-0.0036923899 0.00171249 0.00102275)
(-0.003694 0.00171411 0.00100424)
(-0.00369626 0.00171636 0.00098586595)
(-0.0036991499 0.00171925 0.00096766697)
(-0.0037026701 0.00172277 0.00094969198)
(-0.0037068001 0.0017269 0.00093198201)
(-0.00371155 0.00173165 0.00091458001)
(-0.00371689 0.0017369899 0.00089752901)
(-0.00372282 0.00174292 0.00088086899)
(-0.0037293199 0.00174943 0.00086464098)
(-0.00373638 0.00175648 0.00084888301)
(-0.0037439701 0.00176408 0.000833634)
(-0.00375209 0.00177219 0.00081893097)
(-0.0037607001 0.0017808001 0.00080480799)
(-0.0037698001 0.0017899 0.00079129997)
(-0.0037793501 0.00179945 0.00077843899)
(-0.0037893299 0.00180944 0.00076625601)
(-0.00379973 0.00181983 0.00075478101)
(-0.00381051 0.00183062 0.00074404199)
(-0.0038216601 0.00184176 0.00073406298)
(-0.00383313 0.0018532299 0.00072487001)
(-0.0038449101 0.00186501 0.00071648398)
(-0.00385697 0.0018770701 0.000708926)
(-0.00386927 0.00188937 0.00070221402)
(-0.0038818 0.0019019 0.00069636299)
(-0.00389451 0.00191461 0.00069138798)
(-0.0039073802 0.00192748 0.00068730197)
(-0.0039203698 0.00194047 0.00068411301)
(-0.00393346 0.0019535599 0.00068182999)
(-0.0039466098 0.00196671 0.00068045798)
(-0.0039598001 0.0019799001 0.00068)
(-0.0039729802 0.0019930799 0.00068045798)
(-0.00398613 0.0020062299 0.00068182999)
(-0.0039992202 0.0020193199 0.00068411301)
(-0.0040122201 0.00203232 0.00068730197)
(-0.0040250798 0.00204519 0.00069138798)
(-0.0040377998 0.0020579 0.00069636299)
(-0.00405032 0.00207042 0.00070221297)
(-0.00406262 0.0020827199 0.000708926)
(-0.0040746802 0.0020947801 0.00071648398)
(-0.00408646 0.0021065599 0.00072487001)
(-0.0040979399 0.0021180401 0.00073406298)
(-0.0041090799 0.0021291799 0.000744041)
(-0.00411986 0.00213996 0.00075478101)
(-0.0041302601 0.00215036 0.00076625502)
(-0.0041402401 0.0021603501 0.000778438)
(-0.0041498002 0.0021699001 0.00079129898)
(-0.0041588899 0.00217899 0.000804807)
(-0.0041675 0.0021875999 0.00081892998)
(-0.0041756202 0.0021957201 0.00083363301)
(-0.00418321 0.0022033099 0.00084888202)
(-0.0041902699 0.00221037 0.00086463999)
(-0.00419677 0.00221687 0.000880868)
(-0.0042027002 0.0022227999 0.00089752802)
(-0.00420804 0.0022281399 0.00091458001)
(-0.0042127902 0.0022328901 0.00093198102)
(-0.0042169299 0.0022370301 0.00094969099)
(-0.0042204401 0.00224055 0.00096766697)
(-0.0042233299 0.0022434299 0.00098586502)
(-0.0042255898 0.00224569 0.00100424)
(-0.0042272001 0.0022473 0.00102275)
(-0.00422817 0.00224827 0.00104135)
(-0.0042285002 0.0022485999 0.00106)
(-0.00422817 0.00224827 0.00107864)
(-0.0042272001 0.0022473 0.00109725)
(-0.0042255898 0.00224569 0.00111576)
(-0.0042233299 0.0022434299 0.0011341301)
(-0.0042204401 0.00224055 0.00115233)
(-0.0042169299 0.0022370301 0.00117031)
(-0.0042127902 0.0022328901 0.00118802)
(-0.00420804 0.0022281399 0.00120542)
(-0.0042027002 0.0022227999 0.00122247)
(-0.00419677 0.00221687 0.00123913)
(-0.0041902699 0.00221037 0.00125536)
(-0.00418321 0.0022033099 0.00127112)
(-0.0041756202 0.0021957201 0.00128637)
(-0.0041675 0.0021875999 0.00130107)
(-0.0041588899 0.00217899 0.00131519)
(-0.0041498002 0.0021699001 0.0013287)
(-0.0041402401 0.0021603501 0.00134156)
(-0.0041302601 0.00215036 0.00135374)
(-0.00411986 0.00213996 0.0013652201)
(-0.0041090799 0.0021291799 0.00137596)
(-0.0040979399 0.0021180401 0.00138594)
(-0.00408646 0.0021065599 0.0013951299)
(-0.0040746802 0.0020947801 0.00140352)
(-0.00406262 0.0020827199 0.00141107)
(-0.00405032 0.00207042 0.00141779)
(-0.0040377998 0.0020579 0.0014236399)
(-0.0040250798 0.00204519 0.0014286099)
(-0.0040122201 0.00203232 0.0014327)
(-0.0039992202 0.0020193199 0.00143589)
(-0.00398613 0.0020062299 0.00143817)
(-0.0039729802 0.0019930799 0.0014395399)
(-0.0039729802 0.00196671 0.00071954302)
(-0.0039598001 0.0019799001 0.00072000001)
(-0.00398613 0.0019535599 0.00071817002)
(-0.0039992202 0.00194047 0.000715887)
(-0.0040122201 0.00192748 0.00071269902)
(-0.0040250798 0.00191461 0.00070861197)
(-0.0040377998 0.0019019 0.00070363801)
(-0.00405032 0.00188937 0.00069778698)
(-0.00406262 0.0018770701 0.000691074)
(-0.0040746802 0.00186501 0.00068351597)
(-0.00408646 0.0018532299 0.00067513)
(-0.0040979399 0.00184176 0.00066593703)
(-0.0041090799 0.00183062 0.00065595901)
(-0.00411986 0.00181983 0.000645219)
(-0.0041302601 0.00180944 0.000633744)
(-0.0041402401 0.00179945 0.00062156201)
(-0.0041498002 0.0017899 0.00060870103)
(-0.0041588899 0.0017808001 0.00059519301)
(-0.0041675 0.00177219 0.00058107002)
(-0.0041756202 0.00176408 0.00056636601)
(-0.00418321 0.00175648 0.000551117)
(-0.0041902699 0.00174943 0.00053535902)
(-0.00419677 0.00174292 0.00051913102)
(-0.0042027002 0.0017369899 0.000502471)
(-0.00420804 0.00173165 0.00048541999)
(-0.0042127902 0.0017269 0.000468018)
(-0.0042169299 0.00172277 0.000450308)
(-0.0042204401 0.00171925 0.00043233301)
(-0.0042233299 0.00171636 0.000414134)
(-0.0042255898 0.00171411 0.00039575799)
(-0.0042272001 0.00171249 0.00037724699)
(-0.00422817 0.00171152 0.00035864601)
(-0.0042285002 0.0017112 0.00034)
(-0.00422817 0.00171152 0.00032135399)
(-0.0042272001 0.00171249 0.00030275399)
(-0.0042255898 0.00171411 0.00028424201)
(-0.0042233299 0.00171636 0.00026586599)
(-0.0042204401 0.00171925 0.00024766801)
(-0.0042169299 0.00172277 0.000229692)
(-0.0042127902 0.0017269 0.000211982)
(-0.00420804 0.00173165 0.00019458)
(-0.0042027002 0.0017369899 0.000177529)
(-0.00419677 0.00174292 0.00016086901)
(-0.0041902699 0.00174943 0.000144641)
(-0.00418321 0.00175648 0.000128884)
(-0.0041756202 0.00176408 0.000113634)
(-0.0041675 0.00177219 9.8930999e-05)
(-0.0041588899 0.0017808001 8.4808002e-05)
(-0.0041498002 0.0017899 7.1299997e-05)
(-0.0041402401 0.00179945 5.8439e-05)
(-0.0041302601 0.00180944 4.6255998e-05)
(-0.00411986 0.00181983 3.4781999e-05)
(-0.0041090799 0.00183062 2.4041999e-05)
(-0.0040979399 0.00184176 1.4064e-05)
(-0.00408646 0.0018532299 4.8699999e-06)
(-0.0040746802 0.00186501 -3.5160001e-06)
(-0.00406262 0.0018770701 -1.1074e-05)
(-0.00405032 0.00188937 -1.7786e-05)
(-0.0040377998 0.0019019 -2.3637e-05)
(-0.0040250798 0.00191461 -2.8611001e-05)
(-0.0040122201 0.00192748 -3.2698001e-05)
(-0.0039992202 0.00194047 -3.5886998e-05)
(-0.00398613 0.0019535599 -3.8170001e-05)
(-0.0039729802 0.00196671 -3.9541999e-05)
(-0.0039598001 0.0019799001 -3.9999999e-05)
(-0.0039466098 0.0019930799 -3.9541999e-05)
(-0.00393346 0.0020062299 -3.8170001e-05)
(-0.0039203698 0.0020193199 -3.5886998e-05)
(-0.0039073802 0.00203232 -3.2698001e-05)
(-0.00389451 0.00204519 -2.8611999e-05)
(-0.0038818 0.0020579 -2.3637e-05)
(-0.00386927 0.00207042 -1.7787001e-05)
(-0.00385697 0.0020827199 -1.1074e-05)
(-0.0038449101 0.0020947801 -3.5160001e-06)
(-0.00383313 0.0021065599 4.8699999e-06)
(-0.0038216601 0.0021180401 1.4063e-05)
(-0.00381051 0.0021291799 2.4041001e-05)
(-0.00379973 0.00213996 3.4780998e-05)
(-0.0037893399 0.00215036 4.6255998e-05)
(-0.0037793501 0.0021603501 5.8438e-05)
(-0.0037698001 0.0021699001 7.1299e-05)
(-0.0037607001 0.00217899 8.4806998e-05)
(-0.00375209 0.0021875999 9.8930002e-05)
(-0.0037439701 0.0021957201 0.000113634)